<?xml version="1.0" encoding="UTF-8"?>

<!-- generated on 2023-08-10 17:36:58 by Eclipse SUMO sumo Version 1.18.0
-->

<configuration xmlns:xsi="http://www.w3.org/2001/XMLSchema-instance" xsi:noNamespaceSchemaLocation="http://sumo.dlr.de/xsd/sumoConfiguration.xsd">

    <input>
        <net-file value="town04.net.xml"/>
    </input>

    <time>
        <step-length value="0.1"/>
    </time>

    <gui_only>
        <delay value="0"/>
    </gui_only>

</configuration>
