<?xml version="1.0" encoding="UTF-8"?>

<!-- generated on 2023-08-10 17:37:03 by Eclipse SUMO netedit Version 1.18.0
<configuration xmlns:xsi="http://www.w3.org/2001/XMLSchema-instance" xsi:noNamespaceSchemaLocation="http://sumo.dlr.de/xsd/neteditConfiguration.xsd">

    <input>
        <sumocfg-file value="/home/carma/Mcity-VOICES/mcity_sumo/mcity_map_v2.sumocfg"/>
        <additional-files value=""/>
        <route-files value="/home/carma/Mcity-VOICES/mcity_sumo/TFHRC-pilot2_event0-SUMO-Vehicles.rou.xml"/>
        <sumo-net-file value="/home/carma/Mcity-VOICES/mcity_sumo/mcity_map_v2.net.xml"/>
    </input>

    <output>
        <output-file value="/home/carma/Mcity-VOICES/mcity_sumo/mcity_map_v2.net.xml"/>
    </output>

    <processing>
        <geometry.min-radius.fix.railways value="false"/>
        <geometry.max-grade.fix value="false"/>
        <offset.disable-normalization value="true"/>
        <lefthand value="0"/>
    </processing>

    <junctions>
        <no-turnarounds value="true"/>
        <junctions.corner-detail value="5"/>
        <junctions.limit-turn-speed value="5.50"/>
        <rectangular-lane-cut value="1"/>
    </junctions>

    <pedestrian>
        <walkingareas value="0"/>
    </pedestrian>

</configuration>
-->

<net version="1.16" junctionCornerDetail="5" rectangularLaneCut="true" limitTurnSpeed="5.50" xmlns:xsi="http://www.w3.org/2001/XMLSchema-instance" xsi:noNamespaceSchemaLocation="http://sumo.dlr.de/xsd/net_file.xsd">

    <location netOffset="224.00,227.12" convBoundary="0.00,0.00,430.88,454.52" origBoundary="0.000000,0.000000,0.000000,0.000000" projParameter="+proj=tmerc +lat_0=42.30059341574939 +lon_0=-83.69928318881136 +k=1 +x_0=0 +y_0=0 +datum=WGS84 +units=m  +vunits=m +no_defs "/>

    <type id="bidirectional" priority="1" speed="1.39" disallow="pedestrian tram rail_urban rail rail_electric rail_fast ship" width="3.65"/>
    <type id="driving" priority="1" speed="13.89" disallow="pedestrian tram rail_urban rail rail_electric rail_fast ship" width="3.65"/>

    <edge id=":10#1_0" function="internal">
        <lane id=":10#1_0_0" index="0" disallow="pedestrian tram rail_urban rail rail_electric rail_fast ship" speed="17.88" length="2.75" width="3.63" shape="246.31,207.56,235.42 243.56,207.63,235.27"/>
    </edge>
    <edge id=":10#1_1" function="internal">
        <lane id=":10#1_1_0" index="0" disallow="pedestrian tram rail_urban rail rail_electric rail_fast ship" speed="17.88" length="2.77" width="3.71" shape="243.47,203.98,235.27 246.24,203.89,235.43"/>
    </edge>
    <edge id=":100#1_0" function="internal">
        <lane id=":100#1_0_0" index="0" disallow="pedestrian tram rail_urban rail rail_electric rail_fast ship" speed="17.88" length="2.77" width="3.54" shape="240.32,155.96,234.61 238.19,154.47,233.65"/>
    </edge>
    <edge id=":100#2_0" function="internal">
        <lane id=":100#2_0_0" index="0" disallow="pedestrian tram rail_urban rail rail_electric rail_fast ship" speed="17.88" length="0.46" width="3.54" shape="237.99,154.49,233.65 238.44,154.41,233.68"/>
    </edge>
    <edge id=":104#1_0" function="internal">
        <lane id=":104#1_0_0" index="0" disallow="pedestrian tram rail_urban rail rail_electric rail_fast ship" speed="24.59" length="3.03" width="3.33" shape="222.13,108.52,232.30 222.08,105.49,232.22"/>
    </edge>
    <edge id=":104#1_1" function="internal">
        <lane id=":104#1_1_0" index="0" disallow="pedestrian tram rail_urban rail rail_electric rail_fast ship" speed="24.59" length="3.01" width="3.35" shape="225.43,105.40,232.22 225.52,108.41,232.30"/>
    </edge>
    <edge id=":107#1_0" function="internal">
        <lane id=":107#1_0_0" index="0" disallow="pedestrian tram rail_urban rail rail_electric rail_fast ship" speed="31.29" length="2.81" width="4.68" shape="378.83,86.03,234.26 379.40,86.62,234.27 379.70,87.11,234.28 379.97,87.63,234.29 380.48,88.28,234.30"/>
    </edge>
    <edge id=":107#2_0" function="internal">
        <lane id=":107#2_0_0" index="0" disallow="pedestrian tram rail_urban rail rail_electric rail_fast ship" speed="31.29" length="3.54" width="4.55" shape="386.46,155.08,236.03 384.62,158.10,236.14"/>
    </edge>
    <edge id=":111#1_0" function="internal">
        <lane id=":111#1_0_0" index="0" disallow="pedestrian tram rail_urban rail rail_electric rail_fast ship" speed="17.88" length="3.62" width="2.42" shape="313.98,274.09,237.48 310.96,276.12,237.45"/>
        <lane id=":111#1_0_1" index="1" disallow="pedestrian tram rail_urban rail rail_electric rail_fast ship" speed="11.18" length="3.62" width="4.49" shape="314.07,270.27,237.48 311.05,272.67,237.45"/>
        <lane id=":111#1_0_2" index="2" allow="emergency authority" speed="11.18" length="3.62" width="4.61" shape="314.16,266.79,237.48 313.23,266.98,237.47 312.67,267.45,237.47 312.10,267.92,237.46 311.18,268.12,237.45"/>
    </edge>
    <edge id=":111#2_0" function="internal">
        <lane id=":111#2_0_0" index="0" disallow="all" speed="17.88" length="7.13" width="2.27" shape="299.44,275.79,237.34 297.42,275.39,237.33 296.12,274.62,237.32 294.82,273.89,237.31 292.80,273.58,237.30"/>
        <lane id=":111#2_0_1" index="1" disallow="pedestrian tram rail_urban rail rail_electric rail_fast ship" speed="11.18" length="7.13" width="3.97" shape="299.52,272.34,237.34 297.47,271.99,237.33 296.14,271.33,237.32 294.80,270.72,237.31 292.75,270.46,237.30"/>
        <lane id=":111#2_0_2" index="2" disallow="pedestrian tram rail_urban rail rail_electric rail_fast ship" speed="11.18" length="7.13" width="4.66" shape="299.62,267.79,237.34 297.54,267.49,237.33 296.16,266.92,237.32 294.77,266.37,237.31 292.69,266.15,237.30"/>
    </edge>
    <edge id=":117#1_0" function="internal">
        <lane id=":117#1_0_0" index="0" disallow="pedestrian tram rail_urban rail rail_electric rail_fast ship" speed="17.88" length="1.95" width="7.20" shape="276.33,309.74,238.02 276.30,307.79,237.99"/>
    </edge>
    <edge id=":117#1_1" function="internal">
        <lane id=":117#1_1_0" index="0" disallow="pedestrian tram rail_urban rail rail_electric rail_fast ship" speed="17.88" length="2.05" width="7.38" shape="283.79,307.70,237.99 283.77,308.31,238.00 283.70,308.72,238.00 283.63,309.13,238.01 283.60,309.74,238.02"/>
    </edge>
    <edge id=":119_0" function="internal">
        <lane id=":119_0_0" index="0" disallow="pedestrian tram rail_urban rail rail_electric rail_fast ship" speed="8.86" length="15.83" width="7.67" shape="337.06,373.19,242.51 336.27,368.82,242.20 334.37,365.71,241.94 331.35,363.87,241.69 327.22,363.28,241.40"/>
    </edge>
    <edge id=":119_1" function="internal">
        <lane id=":119_1_0" index="0" disallow="pedestrian tram rail_urban rail rail_electric rail_fast ship" speed="21.23" length="25.75" width="3.60" shape="337.06,373.19,242.51 337.18,367.77,242.17 337.66,360.36,241.70 338.13,352.94,241.24 338.25,347.52,240.90"/>
    </edge>
    <edge id=":119_2" function="internal">
        <lane id=":119_2_0" index="0" disallow="pedestrian tram rail_urban rail rail_electric rail_fast ship" speed="10.13" length="6.74" width="3.91" shape="337.06,373.19,242.51 338.06,367.77,242.33 338.68,366.71,242.28"/>
    </edge>
    <edge id=":119_12" function="internal">
        <lane id=":119_12_0" index="0" disallow="pedestrian tram rail_urban rail rail_electric rail_fast ship" speed="10.13" length="15.90" width="3.91" shape="338.68,366.71,242.28 341.09,362.63,242.12 345.48,358.79,241.93 350.57,357.26,241.75"/>
    </edge>
    <edge id=":119_3" function="internal">
        <lane id=":119_3_0" index="0" disallow="pedestrian tram rail_urban rail rail_electric rail_fast ship" speed="8.45" length="16.36" width="3.93" shape="350.60,360.94,241.75 346.96,361.71,241.92 344.43,363.97,242.08 343.02,367.71,242.27 342.73,372.93,242.51"/>
    </edge>
    <edge id=":119_4" function="internal">
        <lane id=":119_4_0" index="0" disallow="pedestrian tram rail_urban rail rail_electric rail_fast ship" speed="14.53" length="23.51" width="7.67" shape="350.60,360.94,241.75 345.54,361.32,241.67 338.91,362.11,241.58 332.28,362.90,241.48 327.22,363.28,241.40"/>
    </edge>
    <edge id=":119_5" function="internal">
        <lane id=":119_5_0" index="0" disallow="pedestrian tram rail_urban rail rail_electric rail_fast ship" speed="9.69" length="20.61" width="3.60" shape="350.60,360.94,241.75 345.43,360.14,241.53 341.65,357.63,241.35 339.26,353.43,241.15 338.25,347.52,240.90"/>
    </edge>
    <edge id=":119_6" function="internal">
        <lane id=":119_6_0" index="0" disallow="pedestrian tram rail_urban rail rail_electric rail_fast ship" speed="8.33" length="14.90" width="3.91" shape="341.86,347.36,240.90 342.58,351.71,241.15 344.27,354.81,241.35 346.93,356.66,241.54 350.57,357.26,241.75"/>
    </edge>
    <edge id=":119_7" function="internal">
        <lane id=":119_7_0" index="0" disallow="pedestrian tram rail_urban rail rail_electric rail_fast ship" speed="16.77" length="25.64" width="3.93" shape="341.86,347.36,240.90 342.73,372.93,242.51"/>
    </edge>
    <edge id=":119_8" function="internal">
        <lane id=":119_8_0" index="0" disallow="pedestrian tram rail_urban rail rail_electric rail_fast ship" speed="10.33" length="7.89" width="7.67" shape="341.86,347.36,240.90 341.22,354.27,241.04 340.77,355.11,241.06"/>
    </edge>
    <edge id=":119_13" function="internal">
        <lane id=":119_13_0" index="0" disallow="pedestrian tram rail_urban rail rail_electric rail_fast ship" speed="10.33" length="16.99" width="7.67" shape="340.77,355.11,241.06 338.56,359.23,241.15 333.90,362.23,241.26 327.22,363.28,241.40"/>
    </edge>
    <edge id=":119_9" function="internal">
        <lane id=":119_9_0" index="0" disallow="pedestrian tram rail_urban rail rail_electric rail_fast ship" speed="8.69" length="17.23" width="3.60" shape="327.16,357.63,241.40 332.19,356.96,241.25 335.71,355.05,241.14 337.73,351.90,241.03 338.25,347.52,240.90"/>
    </edge>
    <edge id=":119_10" function="internal">
        <lane id=":119_10_0" index="0" disallow="pedestrian tram rail_urban rail rail_electric rail_fast ship" speed="14.53" length="23.42" width="3.91" shape="327.16,357.63,241.40 350.57,357.26,241.75"/>
    </edge>
    <edge id=":119_11" function="internal">
        <lane id=":119_11_0" index="0" disallow="pedestrian tram rail_urban rail rail_electric rail_fast ship" speed="10.57" length="24.72" width="3.93" shape="327.16,357.63,241.40 333.71,358.53,241.70 338.49,361.38,241.95 341.49,366.18,242.20 342.73,372.93,242.51"/>
    </edge>
    <edge id=":134_0" function="internal">
        <lane id=":134_0_0" index="0" disallow="pedestrian tram rail_urban rail rail_electric rail_fast ship" speed="8.86" length="17.58" width="3.65" shape="368.81,280.26,239.05 367.90,275.75,238.91 365.63,272.59,238.79 362.00,270.78,238.66 357.00,270.32,238.51"/>
    </edge>
    <edge id=":134_1" function="internal">
        <lane id=":134_1_0" index="0" disallow="pedestrian tram rail_urban rail rail_electric rail_fast ship" speed="31.29" length="35.31" width="3.06" shape="368.81,280.26,239.05 367.41,244.99,238.17"/>
    </edge>
    <edge id=":134_2" function="internal">
        <lane id=":134_2_0" index="0" disallow="pedestrian tram rail_urban rail rail_electric rail_fast ship" speed="10.18" length="6.28" width="3.99" shape="372.21,280.12,239.05 371.02,273.96,238.90"/>
    </edge>
    <edge id=":134_3" function="internal">
        <lane id=":134_3_0" index="0" disallow="pedestrian tram rail_urban rail rail_electric rail_fast ship" speed="31.29" length="35.30" width="3.69" shape="372.21,280.12,239.05 370.79,244.86,238.17"/>
    </edge>
    <edge id=":134_4" function="internal">
        <lane id=":134_4_0" index="0" disallow="pedestrian tram rail_urban rail rail_electric rail_fast ship" speed="12.95" length="6.87" width="7.34" shape="372.21,280.12,239.05 372.87,273.28,238.98"/>
    </edge>
    <edge id=":134_20" function="internal">
        <lane id=":134_20_0" index="0" disallow="pedestrian tram rail_urban rail rail_electric rail_fast ship" speed="10.18" length="17.10" width="3.99" shape="371.02,273.96,238.90 368.07,269.63,238.78 363.34,267.15,238.66 356.85,266.50,238.51"/>
    </edge>
    <edge id=":134_21" function="internal">
        <lane id=":134_21_0" index="0" disallow="pedestrian tram rail_urban rail rail_electric rail_fast ship" speed="12.95" length="31.80" width="7.34" shape="372.87,273.28,238.98 373.24,269.47,238.95 377.36,261.72,238.87 384.56,256.85,238.79 394.86,254.86,238.70"/>
    </edge>
    <edge id=":134_5" function="internal">
        <lane id=":134_5_0" index="0" disallow="pedestrian tram rail_urban rail rail_electric rail_fast ship" speed="9.42" length="19.00" width="5.91" shape="395.37,267.13,238.83 390.31,268.05,238.96 386.79,270.43,239.07 384.81,274.26,239.18 384.37,279.54,239.32"/>
    </edge>
    <edge id=":134_6" function="internal">
        <lane id=":134_6_0" index="0" disallow="pedestrian tram rail_urban rail rail_electric rail_fast ship" speed="10.30" length="22.99" width="3.71" shape="395.37,267.13,238.83 388.26,268.13,238.90 383.26,270.58,238.95 380.36,274.47,239.00 379.57,279.81,239.05"/>
    </edge>
    <edge id=":134_7" function="internal">
        <lane id=":134_7_0" index="0" disallow="pedestrian tram rail_urban rail rail_electric rail_fast ship" speed="6.71" length="38.52" width="3.99" shape="395.37,267.13,238.83 356.85,266.50,238.51"/>
    </edge>
    <edge id=":134_8" function="internal">
        <lane id=":134_8_0" index="0" disallow="pedestrian tram rail_urban rail rail_electric rail_fast ship" speed="13.02" length="37.78" width="3.69" shape="395.37,267.13,238.83 384.97,266.04,238.65 377.41,261.97,238.50 372.68,254.91,238.35 370.79,244.86,238.17"/>
    </edge>
    <edge id=":134_9" function="internal">
        <lane id=":134_9_0" index="0" disallow="pedestrian tram rail_urban rail rail_electric rail_fast ship" speed="9.18" length="18.59" width="7.34" shape="382.40,244.38,238.17 383.35,249.17,238.31 385.74,252.52,238.43 389.58,254.41,238.55 394.86,254.86,238.70"/>
    </edge>
    <edge id=":134_10" function="internal">
        <lane id=":134_10_0" index="0" disallow="pedestrian tram rail_urban rail rail_electric rail_fast ship" speed="31.29" length="35.23" width="5.91" shape="382.40,244.38,238.17 384.37,279.54,239.32"/>
    </edge>
    <edge id=":134_11" function="internal">
        <lane id=":134_11_0" index="0" disallow="pedestrian tram rail_urban rail rail_electric rail_fast ship" speed="31.29" length="35.29" width="3.71" shape="378.21,244.55,238.17 379.57,279.81,239.05"/>
    </edge>
    <edge id=":134_12" function="internal">
        <lane id=":134_12_0" index="0" disallow="pedestrian tram rail_urban rail rail_electric rail_fast ship" speed="12.36" length="10.69" width="3.65" shape="378.21,244.55,238.17 376.30,252.28,238.25 374.85,254.59,238.27"/>
    </edge>
    <edge id=":134_13" function="internal">
        <lane id=":134_13_0" index="0" disallow="pedestrian tram rail_urban rail rail_electric rail_fast ship" speed="31.29" length="35.30" width="3.69" shape="374.49,244.70,238.17 375.87,279.96,239.05"/>
    </edge>
    <edge id=":134_14" function="internal">
        <lane id=":134_14_0" index="0" disallow="pedestrian tram rail_urban rail rail_electric rail_fast ship" speed="11.45" length="0.15" width="3.99" shape="374.49,244.70,238.17 374.46,244.85,238.17"/>
    </edge>
    <edge id=":134_22" function="internal">
        <lane id=":134_22_0" index="0" disallow="pedestrian tram rail_urban rail rail_electric rail_fast ship" speed="12.36" length="24.53" width="3.65" shape="374.85,254.59,238.27 371.07,260.64,238.34 364.11,267.40,238.44 357.00,270.32,238.51"/>
    </edge>
    <edge id=":134_23" function="internal">
        <lane id=":134_23_0" index="0" disallow="pedestrian tram rail_urban rail rail_electric rail_fast ship" speed="11.45" length="29.94" width="3.99" shape="374.46,244.85,238.17 373.12,251.81,238.25 369.11,258.81,238.34 363.37,264.21,238.43 356.85,266.50,238.51"/>
    </edge>
    <edge id=":134_15" function="internal">
        <lane id=":134_15_0" index="0" disallow="pedestrian tram rail_urban rail rail_electric rail_fast ship" speed="8.62" length="16.54" width="3.06" shape="356.41,254.51,238.03 361.36,253.75,238.07 364.85,251.92,238.11 366.87,249.00,238.14 367.41,244.99,238.17"/>
    </edge>
    <edge id=":134_16" function="internal">
        <lane id=":134_16_0" index="0" disallow="pedestrian tram rail_urban rail rail_electric rail_fast ship" speed="6.71" length="38.47" width="7.34" shape="356.41,254.51,238.03 394.86,254.86,238.70"/>
    </edge>
    <edge id=":134_17" function="internal">
        <lane id=":134_17_0" index="0" disallow="pedestrian tram rail_urban rail rail_electric rail_fast ship" speed="13.02" length="39.00" width="3.71" shape="356.41,254.51,238.03 366.12,255.78,238.29 373.22,260.42,238.51 377.70,268.43,238.75 379.57,279.81,239.05"/>
    </edge>
    <edge id=":134_18" function="internal">
        <lane id=":134_18_0" index="0" disallow="pedestrian tram rail_urban rail rail_electric rail_fast ship" speed="9.91" length="22.21" width="3.69" shape="356.54,258.17,238.03 362.97,257.13,238.07 367.49,254.56,238.10 370.09,250.47,238.13 370.79,244.86,238.17"/>
    </edge>
    <edge id=":134_19" function="internal">
        <lane id=":134_19_0" index="0" disallow="pedestrian tram rail_urban rail rail_electric rail_fast ship" speed="12.03" length="33.10" width="3.69" shape="356.54,258.17,238.03 364.64,259.27,238.28 370.56,263.27,238.50 374.30,270.17,238.74 375.87,279.96,239.05"/>
    </edge>
    <edge id=":15#1_0" function="internal">
        <lane id=":15#1_0_0" index="0" disallow="pedestrian tram rail_urban rail rail_electric rail_fast ship" speed="17.88" length="2.97" width="3.70" shape="318.29,204.80,236.77 315.33,204.94,236.74"/>
    </edge>
    <edge id=":15#1_1" function="internal">
        <lane id=":15#1_1_0" index="0" disallow="pedestrian tram rail_urban rail rail_electric rail_fast ship" speed="17.88" length="2.97" width="3.64" shape="315.17,201.27,236.74 318.14,201.16,236.77"/>
    </edge>
    <edge id=":15#2_0" function="internal">
        <lane id=":15#2_0_0" index="0" disallow="pedestrian tram rail_urban rail rail_electric rail_fast ship" speed="17.88" length="2.59" width="3.70" shape="298.36,205.59,236.64 295.78,205.68,236.63"/>
    </edge>
    <edge id=":15#2_1" function="internal">
        <lane id=":15#2_1_0" index="0" disallow="pedestrian tram rail_urban rail rail_electric rail_fast ship" speed="17.88" length="2.55" width="3.65" shape="295.67,202.02,236.63 298.21,201.91,236.64"/>
    </edge>
    <edge id=":15#3_0" function="internal">
        <lane id=":15#3_0_0" index="0" disallow="pedestrian tram rail_urban rail rail_electric rail_fast ship" speed="17.88" length="0.16" width="3.70" shape="295.58,205.69,236.63 295.73,205.68,236.63"/>
    </edge>
    <edge id=":15#3_1" function="internal">
        <lane id=":15#3_1_0" index="0" disallow="pedestrian tram rail_urban rail rail_electric rail_fast ship" speed="17.88" length="0.11" width="3.62" shape="295.58,202.03,236.63 295.47,202.03,236.63"/>
    </edge>
    <edge id=":15#4_0" function="internal">
        <lane id=":15#4_0_0" index="0" disallow="pedestrian tram rail_urban rail rail_electric rail_fast ship" speed="17.88" length="2.33" width="3.72" shape="292.30,205.82,236.61 289.97,205.91,236.60"/>
    </edge>
    <edge id=":15#4_1" function="internal">
        <lane id=":15#4_1_0" index="0" disallow="pedestrian tram rail_urban rail rail_electric rail_fast ship" speed="17.88" length="2.32" width="3.62" shape="289.85,202.25,236.60 292.17,202.16,236.61"/>
    </edge>
    <edge id=":196_0" function="internal">
        <lane id=":196_0_0" index="0" disallow="pedestrian tram rail_urban rail rail_electric rail_fast ship" speed="15.87" length="30.93" width="3.63" shape="363.34,342.12,241.12 365.28,349.08,241.45 365.28,356.31,241.78 363.35,363.82,242.13 359.49,371.61,242.53"/>
    </edge>
    <edge id=":196_1" function="internal">
        <lane id=":196_1_0" index="0" disallow="pedestrian tram rail_urban rail rail_electric rail_fast ship" speed="9.57" length="26.82" width="3.46" shape="363.34,342.12,241.12 365.38,349.66,241.31 364.45,355.58,241.45 360.41,359.48,241.59 353.15,360.92,241.77"/>
    </edge>
    <edge id=":196_2" function="internal">
        <lane id=":196_2_0" index="0" disallow="pedestrian tram rail_urban rail rail_electric rail_fast ship" speed="8.29" length="19.62" width="3.64" shape="353.12,357.24,241.77 358.30,356.34,241.60 361.17,353.76,241.47 361.74,349.50,241.33 360.00,343.55,241.12"/>
    </edge>
    <edge id=":196_3" function="internal">
        <lane id=":196_3_0" index="0" disallow="pedestrian tram rail_urban rail rail_electric rail_fast ship" speed="8.33" length="21.74" width="3.63" shape="353.12,357.24,241.77 359.22,358.09,241.99 362.32,360.77,242.13 362.41,365.27,242.29 359.49,371.61,242.53"/>
    </edge>
    <edge id=":196_4" function="internal">
        <lane id=":196_4_0" index="0" disallow="pedestrian tram rail_urban rail rail_electric rail_fast ship" speed="6.55" length="12.72" width="3.46" shape="356.26,369.63,242.53 358.07,365.80,242.28 358.16,363.07,242.11 356.52,361.44,241.97 353.15,360.92,241.77"/>
    </edge>
    <edge id=":196_5" function="internal">
        <lane id=":196_5_0" index="0" disallow="pedestrian tram rail_urban rail rail_electric rail_fast ship" speed="14.97" length="27.41" width="3.64" shape="356.26,369.63,242.53 359.77,362.63,242.13 361.56,355.95,241.77 361.64,349.59,241.44 360.00,343.55,241.12"/>
    </edge>
    <edge id=":20#1_0" function="internal">
        <lane id=":20#1_0_0" index="0" disallow="pedestrian tram rail_urban rail rail_electric rail_fast ship" speed="17.88" length="2.33" width="5.47" shape="334.97,291.19,238.53 334.89,288.87,238.47"/>
    </edge>
    <edge id=":20#1_1" function="internal">
        <lane id=":20#1_1_0" index="0" disallow="pedestrian tram rail_urban rail rail_electric rail_fast ship" speed="17.88" length="2.38" width="5.50" shape="340.35,288.62,238.47 340.47,291.00,238.53"/>
    </edge>
    <edge id=":20#2_0" function="internal">
        <lane id=":20#2_0_0" index="0" disallow="pedestrian tram rail_urban rail rail_electric rail_fast ship" speed="17.88" length="0.19" width="5.50" shape="334.99,291.58,238.54 334.98,291.39,238.53"/>
    </edge>
    <edge id=":20#2_1" function="internal">
        <lane id=":20#2_1_0" index="0" disallow="pedestrian tram rail_urban rail rail_electric rail_fast ship" speed="17.88" length="0.13" width="5.50" shape="340.48,291.20,238.53 340.49,291.33,238.54"/>
    </edge>
    <edge id=":20#3_0" function="internal">
        <lane id=":20#3_0_0" index="0" disallow="pedestrian tram rail_urban rail rail_electric rail_fast ship" speed="17.88" length="0.51" width="5.50" shape="335.02,292.29,238.56 335.00,291.78,238.54"/>
    </edge>
    <edge id=":20#3_1" function="internal">
        <lane id=":20#3_1_0" index="0" disallow="pedestrian tram rail_urban rail rail_electric rail_fast ship" speed="17.88" length="0.76" width="5.51" shape="340.50,291.53,238.54 340.53,292.29,238.56"/>
    </edge>
    <edge id=":20#4_0" function="internal">
        <lane id=":20#4_0_0" index="0" disallow="pedestrian tram rail_urban rail rail_electric rail_fast ship" speed="17.88" length="1.55" width="5.51" shape="335.09,294.04,238.60 335.02,292.49,238.56"/>
    </edge>
    <edge id=":20#4_1" function="internal">
        <lane id=":20#4_1_0" index="0" disallow="pedestrian tram rail_urban rail rail_electric rail_fast ship" speed="17.88" length="1.29" width="5.51" shape="340.53,292.49,238.56 340.60,293.78,238.60"/>
    </edge>
    <edge id=":203_0" function="internal">
        <lane id=":203_0_0" index="0" disallow="pedestrian tram rail_urban rail rail_electric rail_fast ship" speed="24.59" length="16.54" width="3.31" shape="238.56,266.34,236.74 238.36,262.36,236.61 238.04,258.10,236.47 237.64,253.84,236.33 237.17,249.88,236.20"/>
    </edge>
    <edge id=":203_1" function="internal">
        <lane id=":203_1_0" index="0" disallow="pedestrian tram rail_urban rail rail_electric rail_fast ship" speed="10.95" length="21.14" width="3.66" shape="240.51,249.44,236.20 241.93,252.07,236.30 245.47,254.38,236.44 251.11,256.37,236.63 258.86,258.03,236.89"/>
    </edge>
    <edge id=":203_2" function="internal">
        <lane id=":203_2_0" index="0" disallow="pedestrian tram rail_urban rail rail_electric rail_fast ship" speed="20.12" length="16.86" width="3.25" shape="240.51,249.44,236.20 240.98,253.45,236.33 241.40,257.81,236.47 241.74,262.18,236.61 241.95,266.22,236.74"/>
    </edge>
    <edge id=":203_3" function="internal">
        <lane id=":203_3_0" index="0" disallow="pedestrian tram rail_urban rail rail_electric rail_fast ship" speed="10.46" length="14.62" width="3.31" shape="230.43,262.05,236.63 233.71,259.23,236.50 235.93,256.26,236.39 237.08,253.14,236.30 237.17,249.88,236.20"/>
    </edge>
    <edge id=":203_4" function="internal">
        <lane id=":203_4_0" index="0" disallow="pedestrian tram rail_urban rail rail_electric rail_fast ship" speed="17.76" length="29.43" width="3.66" shape="230.43,262.05,236.63 235.94,259.11,236.69 242.51,257.46,236.75 250.15,257.10,236.81 258.86,258.03,236.89"/>
    </edge>
    <edge id=":203_5" function="internal">
        <lane id=":203_5_0" index="0" disallow="pedestrian tram rail_urban rail rail_electric rail_fast ship" speed="7.79" length="17.22" width="3.25" shape="230.43,262.05,236.63 235.30,259.32,236.67 238.84,259.10,236.69 241.06,261.40,236.71 241.95,266.22,236.74"/>
    </edge>
    <edge id=":228_0" function="internal">
        <lane id=":228_0_0" index="0" disallow="pedestrian tram rail_urban rail rail_electric rail_fast ship" speed="9.20" length="17.71" width="3.58" shape="274.97,284.34,237.51 274.02,279.82,237.39 271.71,276.64,237.29 268.04,274.81,237.19 263.01,274.32,237.06"/>
    </edge>
    <edge id=":228_1" function="internal">
        <lane id=":228_1_0" index="0" disallow="pedestrian tram rail_urban rail rail_electric rail_fast ship" speed="15.64" length="37.48" width="3.82" shape="274.97,284.34,237.51 273.21,246.91,237.10"/>
    </edge>
    <edge id=":228_2" function="internal">
        <lane id=":228_2_0" index="0" disallow="pedestrian tram rail_urban rail rail_electric rail_fast ship" speed="12.11" length="33.66" width="5.57" shape="274.97,284.34,237.51 276.53,276.60,237.50 281.02,268.21,237.48 287.17,261.47,237.47 293.71,258.65,237.46"/>
    </edge>
    <edge id=":228_3" function="internal">
        <lane id=":228_3_0" index="0" disallow="pedestrian tram rail_urban rail rail_electric rail_fast ship" speed="9.34" length="20.02" width="6.61" shape="292.55,270.46,237.30 287.49,271.37,237.35 283.97,273.93,237.40 282.00,278.14,237.45 281.57,284.00,237.51"/>
    </edge>
    <edge id=":228_4" function="internal">
        <lane id=":228_4_0" index="0" disallow="pedestrian tram rail_urban rail rail_electric rail_fast ship" speed="11.18" length="29.66" width="3.65" shape="292.55,270.46,237.30 262.90,270.70,237.06"/>
    </edge>
    <edge id=":228_5" function="internal">
        <lane id=":228_5_0" index="0" disallow="pedestrian tram rail_urban rail rail_electric rail_fast ship" speed="11.75" length="11.00" width="3.82" shape="292.49,266.15,237.30 284.28,265.05,237.25 281.96,263.65,237.23"/>
    </edge>
    <edge id=":228_13" function="internal">
        <lane id=":228_13_0" index="0" disallow="pedestrian tram rail_urban rail rail_electric rail_fast ship" speed="11.75" length="19.95" width="3.82" shape="281.96,263.65,237.23 278.33,261.47,237.20 274.64,255.43,237.16 273.21,246.91,237.10"/>
    </edge>
    <edge id=":228_6" function="internal">
        <lane id=":228_6_0" index="0" disallow="pedestrian tram rail_urban rail rail_electric rail_fast ship" speed="9.50" length="19.70" width="5.57" shape="281.19,246.66,237.10 282.12,251.98,237.20 284.51,255.74,237.28 288.38,257.97,237.36 293.71,258.65,237.46"/>
    </edge>
    <edge id=":228_7" function="internal">
        <lane id=":228_7_0" index="0" disallow="pedestrian tram rail_urban rail rail_electric rail_fast ship" speed="12.34" length="34.68" width="3.58" shape="281.19,246.66,237.10 279.55,254.70,237.09 275.08,263.73,237.08 269.12,271.14,237.07 263.01,274.32,237.06"/>
    </edge>
    <edge id=":228_8" function="internal">
        <lane id=":228_8_0" index="0" disallow="pedestrian tram rail_urban rail rail_electric rail_fast ship" speed="17.88" length="37.50" width="6.61" shape="276.97,246.79,237.10 277.79,256.12,237.20 279.29,267.27,237.33 280.79,277.48,237.44 281.57,284.00,237.51"/>
    </edge>
    <edge id=":228_9" function="internal">
        <lane id=":228_9_0" index="0" disallow="pedestrian tram rail_urban rail rail_electric rail_fast ship" speed="11.34" length="29.40" width="3.65" shape="276.97,246.79,237.10 275.89,254.25,237.09 272.71,262.00,237.08 268.14,268.12,237.07 262.90,270.70,237.06"/>
    </edge>
    <edge id=":228_10" function="internal">
        <lane id=":228_10_0" index="0" disallow="pedestrian tram rail_urban rail rail_electric rail_fast ship" speed="8.94" length="17.78" width="3.82" shape="262.50,258.25,236.96 267.31,257.40,237.00 270.70,255.23,237.03 272.67,251.73,237.06 273.21,246.91,237.10"/>
    </edge>
    <edge id=":228_11" function="internal">
        <lane id=":228_11_0" index="0" disallow="pedestrian tram rail_urban rail rail_electric rail_fast ship" speed="17.88" length="31.27" width="5.57" shape="262.63,261.97,236.96 293.71,258.65,237.46"/>
    </edge>
    <edge id=":228_12" function="internal">
        <lane id=":228_12_0" index="0" disallow="pedestrian tram rail_urban rail rail_electric rail_fast ship" speed="11.50" length="10.58" width="6.61" shape="262.75,265.56,236.96 270.61,266.49,237.11 272.90,267.83,237.15"/>
    </edge>
    <edge id=":228_14" function="internal">