<?xml version="1.0" encoding="UTF-8"?>

<!-- generated on 2023-11-17 11:34:46 by Eclipse SUMO netedit Version 1.19.0
-->

<routes xmlns:xsi="http://www.w3.org/2001/XMLSchema-instance" xsi:noNamespaceSchemaLocation="http://sumo.dlr.de/xsd/routes_file.xsd">
    <!-- Vehicles, persons and containers (sorted by depart) -->
    <trip id="TFHRC-SUMO-01" depart="0.00" from="-106" to="-104#1" via="-110 5 93#0 20#4 20#0 40#4 6 13 -116 -113 -55 -25 -116 -113 -55 30 -14 -107#0 -107#1 -107#2 2 84#5 84#4 84#0 -12 -114 39 103 -59 -33 -29 -49#1 -49#3 -104#0"/>
    <trip id="TFHRC-SUMO-02" depart="0.00" from="117#0" to="30" via="110 106 3 -113 -55 -25 -13 -6 -40#0 -40#4 -20#0 -53 -48 12 -84#0 -84#4 -84#6 -2 -34#0 14 104#0 49#3 49#1 49#0 29 33 -97#0 -97#1 -58 -59 -97#1 -58 -59 -97#1 -58 -103 99 93#0 20#4 20#0 40#4 40#0 6 13 -116 -113 -55"/>
</routes>
