<?xml version="1.0" encoding="UTF-8"?>

<!-- generated on 2023-08-11 13:52:34 by Eclipse SUMO netedit Version 1.18.0
-->

<routes xmlns:xsi="http://www.w3.org/2001/XMLSchema-instance" xsi:noNamespaceSchemaLocation="http://sumo.dlr.de/xsd/routes_file.xsd">
    <!-- Vehicles, persons and containers (sorted by depart) -->
    <trip id="TFHRC-SUMO-01" depart="0.00" from="-3" to="-107#2" via="-106 -46#0 -38 -2 -34#0 14 -30 -25 -116 -113 -55 30 -14 -107#0 -107#1"/>
    <trip id="TFHRC-SUMO-02" depart="0.00" from="10#0" to="4" via="15#4 15#3 15#2 15#1 15#0 6 13 -116 -3 -106 -110 -117#0 -117#1 -58 -59 -33 -31 -26 -28 -32 -46#0 -38 -9"/>
    <!-- <trip id="TFHRC-SUMO-03" depart="0.00" from="106" to="13" via="3 -113 -55 30 -14 -107#0 -107#1 -107#2 2 -57 -20#0 -20#2 -20#3 -20#4 -53 56 82 -93#0 -5 110 -46#0 40#4 40#3 40#2 40#1 40#0 6"/> -->
</routes>
