<?xml version="1.0" encoding="UTF-8"?>

<!-- generated on 2024-02-23 20:28:24 by Eclipse SUMO netconvert Version 1.19.0
<configuration xmlns:xsi="http://www.w3.org/2001/XMLSchema-instance" xsi:noNamespaceSchemaLocation="http://sumo.dlr.de/xsd/netconvertConfiguration.xsd">

    <input>
        <opendrive-files value="mcity_map_voices_v303.xodr"/>
    </input>

    <output>
        <output-file value="mcity_map_voices_v303.net.xml"/>
    </output>

    <tls_building>
        <tls.guess value="true"/>
    </tls_building>

    <junctions>
        <no-turnarounds.except-deadend value="true"/>
    </junctions>

</configuration>
-->

<net version="1.16" junctionCornerDetail="5" rectangularLaneCut="true" limitTurnSpeed="5.50" xmlns:xsi="http://www.w3.org/2001/XMLSchema-instance" xsi:noNamespaceSchemaLocation="http://sumo.dlr.de/xsd/net_file.xsd">

    <location netOffset="0.27,158.47" convBoundary="0.00,0.00,205.44,385.87" origBoundary="0.000000,0.000000,0.000000,0.000000" projParameter="+proj=tmerc +lat_0=42.30059341574939 +lon_0=-83.69928318881136 +k=1 +x_0=0 +y_0=0 +datum=WGS84 +units=m +geoidgrids=egm96_15.gtx +vunits=m +no_defs "/>

    <type id="bidirectional" priority="1" speed="1.39" disallow="pedestrian tram rail_urban rail rail_electric rail_fast ship" width="3.65"/>
    <type id="driving" priority="1" speed="13.89" disallow="pedestrian tram rail_urban rail rail_electric rail_fast ship" width="3.65"/>

    <edge id=":10#1_0" function="internal">
        <lane id=":10#1_0_0" index="0" disallow="pedestrian tram rail_urban rail rail_electric rail_fast ship" speed="17.88" length="2.73" width="3.63" shape="22.56,138.90,235.42 19.83,138.99,235.27"/>
    </edge>
    <edge id=":10#1_1" function="internal">
        <lane id=":10#1_1_0" index="0" disallow="pedestrian tram rail_urban rail rail_electric rail_fast ship" speed="17.88" length="2.73" width="3.71" shape="19.74,135.33,235.27 22.46,135.24,235.42"/>
    </edge>
    <edge id=":130_0" function="internal">
        <lane id=":130_0_0" index="0" disallow="pedestrian tram rail_urban rail rail_electric rail_fast ship" speed="8.84" length="15.84" width="7.67" shape="113.33,304.53,242.52 112.55,300.15,242.21 110.66,297.04,241.95 107.64,295.20,241.70 103.51,294.63,241.41"/>
    </edge>
    <edge id=":130_1" function="internal">
        <lane id=":130_1_0" index="0" disallow="pedestrian tram rail_urban rail rail_electric rail_fast ship" speed="21.23" length="25.74" width="3.59" shape="113.33,304.53,242.52 113.46,299.12,242.18 113.94,291.70,241.71 114.42,284.29,241.24 114.53,278.88,240.90"/>
    </edge>
    <edge id=":130_2" function="internal">
        <lane id=":130_2_0" index="0" disallow="pedestrian tram rail_urban rail rail_electric rail_fast ship" speed="10.14" length="6.73" width="3.91" shape="113.33,304.53,242.52 114.34,299.12,242.34 114.95,298.07,242.30"/>
    </edge>
    <edge id=":130_12" function="internal">
        <lane id=":130_12_0" index="0" disallow="pedestrian tram rail_urban rail rail_electric rail_fast ship" speed="10.14" length="15.91" width="3.91" shape="114.95,298.07,242.30 117.36,293.98,242.14 121.75,290.13,241.95 126.84,288.60,241.77"/>
    </edge>
    <edge id=":130_3" function="internal">
        <lane id=":130_3_0" index="0" disallow="pedestrian tram rail_urban rail rail_electric rail_fast ship" speed="8.46" length="16.35" width="3.93" shape="126.87,292.29,241.77 123.23,293.06,241.94 120.71,295.32,242.10 119.30,299.06,242.28 119.00,304.29,242.52"/>
    </edge>
    <edge id=":130_4" function="internal">
        <lane id=":130_4_0" index="0" disallow="pedestrian tram rail_urban rail rail_electric rail_fast ship" speed="14.53" length="23.49" width="7.67" shape="126.87,292.29,241.77 121.81,292.66,241.69 115.19,293.44,241.59 108.57,294.24,241.49 103.51,294.63,241.41"/>
    </edge>
    <edge id=":130_5" function="internal">
        <lane id=":130_5_0" index="0" disallow="pedestrian tram rail_urban rail rail_electric rail_fast ship" speed="9.70" length="20.58" width="3.59" shape="126.87,292.29,241.77 121.72,291.48,241.55 117.95,288.98,241.36 115.55,284.78,241.16 114.53,278.88,240.90"/>
    </edge>
    <edge id=":130_6" function="internal">
        <lane id=":130_6_0" index="0" disallow="pedestrian tram rail_urban rail rail_electric rail_fast ship" speed="8.34" length="14.89" width="3.91" shape="118.13,278.70,240.90 118.86,283.05,241.16 120.55,286.16,241.37 123.22,288.01,241.56 126.84,288.60,241.77"/>
    </edge>
    <edge id=":130_7" function="internal">
        <lane id=":130_7_0" index="0" disallow="pedestrian tram rail_urban rail rail_electric rail_fast ship" speed="16.76" length="25.65" width="3.93" shape="118.13,278.70,240.90 119.00,304.29,242.52"/>
    </edge>
    <edge id=":130_8" function="internal">
        <lane id=":130_8_0" index="0" disallow="pedestrian tram rail_urban rail rail_electric rail_fast ship" speed="10.33" length="7.88" width="7.67" shape="118.13,278.70,240.90 117.51,285.58,241.04 117.05,286.44,241.06"/>
    </edge>
    <edge id=":130_13" function="internal">
        <lane id=":130_13_0" index="0" disallow="pedestrian tram rail_urban rail rail_electric rail_fast ship" speed="10.33" length="16.97" width="7.67" shape="117.05,286.44,241.06 114.86,290.53,241.16 110.20,293.55,241.27 103.51,294.63,241.41"/>
    </edge>
    <edge id=":130_9" function="internal">
        <lane id=":130_9_0" index="0" disallow="pedestrian tram rail_urban rail rail_electric rail_fast ship" speed="8.69" length="17.23" width="3.59" shape="103.42,288.98,241.41 108.47,288.28,241.26 112.00,286.36,241.14 114.02,283.23,241.03 114.53,278.88,240.90"/>
    </edge>
    <edge id=":130_10" function="internal">
        <lane id=":130_10_0" index="0" disallow="pedestrian tram rail_urban rail rail_electric rail_fast ship" speed="14.53" length="23.42" width="3.91" shape="103.42,288.98,241.41 126.84,288.60,241.77"/>
    </edge>
    <edge id=":130_11" function="internal">
        <lane id=":130_11_0" index="0" disallow="pedestrian tram rail_urban rail rail_electric rail_fast ship" speed="10.55" length="24.78" width="3.93" shape="103.42,288.98,241.41 109.99,289.85,241.71 114.77,292.69,241.96 117.78,297.50,242.21 119.00,304.29,242.52"/>
    </edge>
    <edge id=":145_0" function="internal">
        <lane id=":145_0_0" index="0" disallow="pedestrian tram rail_urban rail rail_electric rail_fast ship" speed="11.09" length="42.09" width="7.37" shape="191.70,167.02,237.64 197.89,177.36,237.94 198.47,187.22,238.19 193.45,194.72,238.42 182.82,198.01,238.70"/>
    </edge>
    <edge id=":145_1" function="internal">
        <lane id=":145_1_0" index="0" disallow="pedestrian tram rail_urban rail rail_electric rail_fast ship" speed="6.66" length="9.27" width="7.37" shape="182.32,185.75,238.58 187.05,188.63,238.62 188.70,191.63,238.64 188.58,191.91,238.64"/>
    </edge>
    <edge id=":145_2" function="internal">
        <lane id=":145_2_0" index="0" disallow="pedestrian tram rail_urban rail rail_electric rail_fast ship" speed="6.66" length="8.65" width="7.37" shape="188.58,191.91,238.64 187.30,194.76,238.66 182.82,198.01,238.70"/>
    </edge>
    <edge id=":15#1_0" function="internal">
        <lane id=":15#1_0_0" index="0" disallow="pedestrian tram rail_urban rail rail_electric rail_fast ship" speed="17.88" length="1.90" width="3.70" shape="74.63,136.94,236.64 72.74,137.01,236.63"/>
    </edge>
    <edge id=":15#1_1" function="internal">
        <lane id=":15#1_1_0" index="0" disallow="pedestrian tram rail_urban rail rail_electric rail_fast ship" speed="17.88" length="1.90" width="3.65" shape="72.60,133.35,236.63 74.49,133.27,236.64"/>
    </edge>
    <edge id=":15#2_0" function="internal">
        <lane id=":15#2_0_0" index="0" disallow="pedestrian tram rail_urban rail rail_electric rail_fast ship" speed="17.88" length="1.89" width="3.70" shape="72.54,137.02,236.63 70.65,137.09,236.62"/>
    </edge>
    <edge id=":15#2_1" function="internal">
        <lane id=":15#2_1_0" index="0" disallow="pedestrian tram rail_urban rail rail_electric rail_fast ship" speed="17.88" length="1.90" width="3.62" shape="70.51,133.43,236.62 72.40,133.36,236.63"/>
    </edge>
    <edge id=":154_0" function="internal">
        <lane id=":154_0_0" index="0" disallow="pedestrian tram rail_urban rail rail_electric rail_fast ship" speed="8.85" length="17.58" width="3.65" shape="145.08,211.60,239.06 144.18,207.09,238.88 141.92,203.94,238.74 138.28,202.13,238.59 133.27,201.67,238.40"/>
    </edge>
    <edge id=":154_1" function="internal">
        <lane id=":154_1_0" index="0" disallow="pedestrian tram rail_urban rail rail_electric rail_fast ship" speed="31.29" length="35.29" width="3.06" shape="145.08,211.60,239.06 143.68,176.34,238.18"/>
    </edge>
    <edge id=":154_2" function="internal">
        <lane id=":154_2_0" index="0" disallow="pedestrian tram rail_urban rail rail_electric rail_fast ship" speed="10.17" length="6.27" width="3.99" shape="148.48,211.46,239.06 147.31,205.30,238.88"/>
    </edge>
    <edge id=":154_3" function="internal">
        <lane id=":154_3_0" index="0" disallow="pedestrian tram rail_urban rail rail_electric rail_fast ship" speed="31.29" length="35.29" width="3.69" shape="148.48,211.46,239.06 147.05,176.21,238.18"/>
    </edge>
    <edge id=":154_4" function="internal">
        <lane id=":154_4_0" index="0" disallow="pedestrian tram rail_urban rail rail_electric rail_fast ship" speed="12.95" length="6.78" width="7.34" shape="148.48,211.46,239.06 149.15,204.72,238.99"/>
    </edge>
    <edge id=":154_20" function="internal">
        <lane id=":154_20_0" index="0" disallow="pedestrian tram rail_urban rail rail_electric rail_fast ship" speed="10.17" length="17.11" width="3.99" shape="147.31,205.30,238.88 144.36,200.98,238.73 139.63,198.50,238.58 133.13,197.85,238.40"/>
    </edge>
    <edge id=":154_21" function="internal">
        <lane id=":154_21_0" index="0" disallow="pedestrian tram rail_urban rail rail_electric rail_fast ship" speed="12.95" length="31.90" width="7.34" shape="149.15,204.72,238.99 149.53,200.79,238.96 153.66,193.02,238.88 160.87,188.16,238.80 171.15,186.21,238.71"/>
    </edge>
    <edge id=":154_5" function="internal">
        <lane id=":154_5_0" index="0" disallow="pedestrian tram rail_urban rail rail_electric rail_fast ship" speed="9.43" length="18.98" width="5.91" shape="171.66,198.48,238.82 166.59,199.43,238.94 163.07,201.81,239.04 161.08,205.63,239.14 160.64,210.87,239.26"/>
    </edge>
    <edge id=":154_6" function="internal">
        <lane id=":154_6_0" index="0" disallow="pedestrian tram rail_urban rail rail_electric rail_fast ship" speed="10.33" length="22.97" width="3.71" shape="171.66,198.48,238.82 164.56,199.52,238.90 159.56,201.98,238.95 156.65,205.86,239.00 155.84,211.17,239.06"/>
    </edge>
    <edge id=":154_7" function="internal">
        <lane id=":154_7_0" index="0" disallow="pedestrian tram rail_urban rail rail_electric rail_fast ship" speed="6.71" length="38.54" width="3.99" shape="171.66,198.48,238.82 133.13,197.85,238.40"/>
    </edge>
    <edge id=":154_8" function="internal">
        <lane id=":154_8_0" index="0" disallow="pedestrian tram rail_urban rail rail_electric rail_fast ship" speed="13.01" length="37.86" width="3.69" shape="171.66,198.48,238.82 161.25,197.45,238.65 153.68,193.39,238.50 148.94,186.31,238.36 147.05,176.21,238.18"/>
    </edge>
    <edge id=":154_9" function="internal">
        <lane id=":154_9_0" index="0" disallow="pedestrian tram rail_urban rail rail_electric rail_fast ship" speed="9.18" length="18.58" width="7.34" shape="158.68,175.74,238.18 159.62,180.51,238.32 162.02,183.85,238.44 165.86,185.75,238.56 171.15,186.21,238.71"/>
    </edge>
    <edge id=":154_10" function="internal">
        <lane id=":154_10_0" index="0" disallow="pedestrian tram rail_urban rail rail_electric rail_fast ship" speed="31.29" length="35.21" width="5.91" shape="158.68,175.74,238.18 160.64,210.87,239.26"/>
    </edge>
    <edge id=":154_11" function="internal">
        <lane id=":154_11_0" index="0" disallow="pedestrian tram rail_urban rail rail_electric rail_fast ship" speed="31.29" length="35.30" width="3.71" shape="154.49,175.90,238.18 155.84,211.17,239.06"/>
    </edge>
    <edge id=":154_12" function="internal">
        <lane id=":154_12_0" index="0" disallow="pedestrian tram rail_urban rail rail_electric rail_fast ship" speed="12.36" length="10.70" width="3.65" shape="154.49,175.90,238.18 152.57,183.63,238.23 151.12,185.95,238.25"/>
    </edge>
    <edge id=":154_13" function="internal">
        <lane id=":154_13_0" index="0" disallow="pedestrian tram rail_urban rail rail_electric rail_fast ship" speed="31.29" length="35.30" width="3.69" shape="150.76,176.06,238.18 152.14,211.31,239.06"/>
    </edge>
    <edge id=":154_14" function="internal">
        <lane id=":154_14_0" index="0" disallow="pedestrian tram rail_urban rail rail_electric rail_fast ship" speed="11.45" length="0.18" width="3.99" shape="150.76,176.06,238.18 150.73,176.23,238.18"/>
    </edge>
    <edge id=":154_22" function="internal">
        <lane id=":154_22_0" index="0" disallow="pedestrian tram rail_urban rail rail_electric rail_fast ship" speed="12.36" length="24.52" width="3.65" shape="151.12,185.95,238.25 147.34,191.99,238.29 140.38,198.75,238.35 133.27,201.67,238.40"/>
    </edge>
    <edge id=":154_23" function="internal">
        <lane id=":154_23_0" index="0" disallow="pedestrian tram rail_urban rail rail_electric rail_fast ship" speed="11.45" length="29.91" width="3.99" shape="150.73,176.23,238.18 149.39,183.16,238.23 145.37,190.16,238.29 139.64,195.56,238.35 133.13,197.85,238.40"/>
    </edge>
    <edge id=":154_15" function="internal">
        <lane id=":154_15_0" index="0" disallow="pedestrian tram rail_urban rail rail_electric rail_fast ship" speed="8.62" length="16.54" width="3.06" shape="132.69,185.86,238.12 137.63,185.11,238.14 141.11,183.27,238.15 143.13,180.35,238.17 143.68,176.34,238.18"/>
    </edge>
    <edge id=":154_16" function="internal">
        <lane id=":154_16_0" index="0" disallow="pedestrian tram rail_urban rail rail_electric rail_fast ship" speed="6.71" length="38.47" width="7.34" shape="132.69,185.86,238.12 171.15,186.21,238.71"/>
    </edge>
    <edge id=":154_17" function="internal">
        <lane id=":154_17_0" index="0" disallow="pedestrian tram rail_urban rail rail_electric rail_fast ship" speed="13.01" length="39.02" width="3.71" shape="132.69,185.86,238.12 142.43,187.14,238.35 149.53,191.78,238.56 154.00,199.79,238.78 155.84,211.17,239.06"/>
    </edge>
    <edge id=":154_18" function="internal">
        <lane id=":154_18_0" index="0" disallow="pedestrian tram rail_urban rail rail_electric rail_fast ship" speed="9.91" length="22.21" width="3.69" shape="132.82,189.52,238.12 139.24,188.48,238.14 143.75,185.92,238.15 146.36,181.83,238.16 147.05,176.21,238.18"/>
    </edge>
    <edge id=":154_19" function="internal">
        <lane id=":154_19_0" index="0" disallow="pedestrian tram rail_urban rail rail_electric rail_fast ship" speed="12.02" length="33.11" width="3.69" shape="132.82,189.52,238.12 140.94,190.63,238.35 146.86,194.63,238.55 150.60,201.52,238.77 152.14,211.31,239.06"/>
    </edge>
    <edge id=":18#1_0" function="internal">
        <lane id=":18#1_0_0" index="0" disallow="pedestrian tram rail_urban rail rail_electric rail_fast ship" speed="17.88" length="1.68" width="2.67" shape="109.81,221.96,238.51 109.74,220.28,238.47"/>
        <lane id=":18#1_0_1" index="1" disallow="pedestrian tram rail_urban rail rail_electric rail_fast ship" speed="17.88" length="1.68" width="2.82" shape="112.55,221.83,238.51 112.48,220.16,238.47"/>
    </edge>
    <edge id=":18#1_2" function="internal">
        <lane id=":18#1_2_0" index="0" disallow="pedestrian tram rail_urban rail rail_electric rail_fast ship" speed="17.88" length="1.68" width="5.50" shape="116.63,219.97,238.47 116.71,221.65,238.51"/>
    </edge>
    <edge id=":18#2_0" function="internal">
        <lane id=":18#2_0_0" index="0" disallow="pedestrian tram rail_urban rail rail_electric rail_fast ship" speed="17.88" length="0.88" width="2.68" shape="109.85,223.03,238.54 109.82,222.16,238.51"/>
        <lane id=":18#2_0_1" index="1" disallow="pedestrian tram rail_urban rail rail_electric rail_fast ship" speed="17.88" length="0.88" width="2.82" shape="112.60,222.91,238.54 112.56,222.03,238.51"/>
    </edge>
    <edge id=":18#2_2" function="internal">
        <lane id=":18#2_2_0" index="0" disallow="pedestrian tram rail_urban rail rail_electric rail_fast ship" speed="17.88" length="0.79" width="5.50" shape="116.72,221.85,238.51 116.76,222.64,238.54"/>
    </edge>
    <edge id=":18#3_0" function="internal">
        <lane id=":18#3_0_0" index="0" disallow="pedestrian tram rail_urban rail rail_electric rail_fast ship" speed="17.88" length="0.59" width="2.68" shape="109.88,223.82,238.56 109.86,223.23,238.54"/>
        <lane id=":18#3_0_1" index="1" disallow="pedestrian tram rail_urban rail rail_electric rail_fast ship" speed="17.88" length="0.59" width="2.83" shape="112.63,223.70,238.56 112.61,223.11,238.54"/>
    </edge>
    <edge id=":18#3_2" function="internal">
        <lane id=":18#3_2_0" index="0" disallow="pedestrian tram rail_urban rail rail_electric rail_fast ship" speed="17.88" length="0.68" width="5.51" shape="116.77,222.84,238.54 116.80,223.52,238.56"/>
    </edge>
    <edge id=":18#4_0" function="internal">
        <lane id=":18#4_0_0" index="0" disallow="pedestrian tram rail_urban rail rail_electric rail_fast ship" speed="17.88" length="1.48" width="2.68" shape="109.95,225.50,238.60 109.89,224.02,238.56"/>
        <lane id=":18#4_0_1" index="1" disallow="pedestrian tram rail_urban rail rail_electric rail_fast ship" speed="17.88" length="1.48" width="2.83" shape="112.71,225.38,238.60 112.64,223.90,238.56"/>
    </edge>
    <edge id=":18#4_2" function="internal">
        <lane id=":18#4_2_0" index="0" disallow="pedestrian tram rail_urban rail rail_electric rail_fast ship" speed="17.88" length="1.48" width="5.51" shape="116.81,223.72,238.56 116.87,225.20,238.60"/>
    </edge>
    <edge id=":216_0" function="internal">
        <lane id=":216_0_0" index="0" disallow="pedestrian tram rail_urban rail rail_electric rail_fast ship" speed="15.85" length="30.93" width="3.63" shape="139.61,273.47,241.11 141.56,280.40,241.44 141.56,287.62,241.77 139.63,295.14,242.13 135.76,302.95,242.52"/>
    </edge>
    <edge id=":216_1" function="internal">
        <lane id=":216_1_0" index="0" disallow="pedestrian tram rail_urban rail rail_electric rail_fast ship" speed="9.56" length="13.43" width="3.46" shape="139.61,273.47,241.11 141.67,281.00,241.31 140.79,286.55,241.45"/>
    </edge>
    <edge id=":216_6" function="internal">
        <lane id=":216_6_0" index="0" disallow="pedestrian tram rail_urban rail rail_electric rail_fast ship" speed="9.56" length="13.41" width="3.46" shape="140.79,286.55,241.45 140.73,286.93,241.46 136.69,290.83,241.60 129.43,292.27,241.79"/>
    </edge>
    <edge id=":216_2" function="internal">
        <lane id=":216_2_0" index="0" disallow="pedestrian tram rail_urban rail rail_electric rail_fast ship" speed="8.29" length="19.65" width="3.64" shape="129.40,288.58,241.79 134.59,287.69,241.61 137.47,285.11,241.48 138.03,280.85,241.33 136.27,274.90,241.11"/>
    </edge>
    <edge id=":216_3" function="internal">
        <lane id=":216_3_0" index="0" disallow="pedestrian tram rail_urban rail rail_electric rail_fast ship" speed="8.33" length="21.71" width="3.63" shape="129.40,288.58,241.79 135.48,289.44,242.00 138.57,292.12,242.14 138.66,296.62,242.29 135.76,302.95,242.52"/>
    </edge>
    <edge id=":216_4" function="internal">
        <lane id=":216_4_0" index="0" disallow="pedestrian tram rail_urban rail rail_electric rail_fast ship" speed="6.55" length="12.70" width="3.46" shape="132.53,300.98,242.52 134.33,297.15,242.28 134.42,294.41,242.12 132.79,292.79,241.99 129.43,292.27,241.79"/>
    </edge>
    <edge id=":216_5" function="internal">
        <lane id=":216_5_0" index="0" disallow="pedestrian tram rail_urban rail rail_electric rail_fast ship" speed="14.96" length="27.41" width="3.64" shape="132.53,300.98,242.52 136.04,293.95,242.12 137.84,287.26,241.76 137.92,280.91,241.43 136.27,274.90,241.11"/>
    </edge>
    <edge id=":223_0" function="internal">
        <lane id=":223_0_0" index="0" disallow="pedestrian tram rail_urban rail rail_electric rail_fast ship" speed="31.29" length="39.64" width="3.04" shape="142.19,139.31,237.25 140.63,99.71,236.24"/>
        <lane id=":223_0_1" index="1" disallow="pedestrian tram rail_urban rail rail_electric rail_fast ship" speed="31.29" length="39.64" width="3.65" shape="145.56,139.17,237.25 143.98,99.58,236.24"/>
    </edge>
    <edge id=":223_2" function="internal">
        <lane id=":223_2_0" index="0" disallow="pedestrian tram rail_urban rail rail_electric rail_fast ship" speed="27.94" length="42.64" width="5.28" shape="160.95,95.50,236.83 162.43,103.38,236.77 165.73,116.21,236.66 169.29,129.01,236.56 171.54,136.78,236.49"/>
    </edge>
    <edge id=":223_3" function="internal">
        <lane id=":223_3_0" index="0" disallow="pedestrian tram rail_urban rail rail_electric rail_fast ship" speed="31.29" length="43.39" width="4.65" shape="160.95,95.50,236.83 160.30,102.25,236.90 158.85,113.35,237.01 157.52,126.32,237.13 157.19,138.69,237.25"/>
    </edge>
    <edge id=":223_4" function="internal">
        <lane id=":223_4_0" index="0" disallow="pedestrian tram rail_urban rail rail_electric rail_fast ship" speed="31.29" length="39.63" width="3.73" shape="151.34,99.28,236.24 153.00,138.86,237.25"/>
        <lane id=":223_4_1" index="1" disallow="pedestrian tram rail_urban rail rail_electric rail_fast ship" speed="31.29" length="39.63" width="3.72" shape="147.64,99.43,236.24 149.27,139.02,237.25"/>
    </edge>
    <edge id=":230_0" function="internal">
        <lane id=":230_0_0" index="0" disallow="pedestrian tram rail_urban rail rail_electric rail_fast ship" speed="24.59" length="19.46" width="3.25" shape="14.87,198.61,236.76 14.63,194.17,236.61 14.22,188.91,236.44 13.73,183.65,236.28 13.21,179.24,236.13"/>
    </edge>
    <edge id=":230_1" function="internal">
        <lane id=":230_1_0" index="0" disallow="pedestrian tram rail_urban rail rail_electric rail_fast ship" speed="10.32" length="2.87" width="3.66" shape="14.87,198.61,236.76 15.62,195.85,236.78"/>
        <lane id=":230_1_1" index="1" disallow="pedestrian tram rail_urban rail rail_electric rail_fast ship" speed="9.80" length="2.05" width="3.75" shape="14.87,198.61,236.76 15.73,196.76,236.77"/>
        <lane id=":230_1_2" index="2" disallow="pedestrian tram rail_urban rail rail_electric rail_fast ship" speed="9.38" length="1.54" width="3.28" shape="14.87,198.61,236.76 16.00,197.57,236.77"/>
    </edge>
    <edge id=":230_13" function="internal">
        <lane id=":230_13_0" index="0" disallow="pedestrian tram rail_urban rail rail_electric rail_fast ship" speed="10.32" length="23.32" width="3.66" shape="15.62,195.85,236.78 16.27,193.46,236.79 20.62,190.63,236.83 27.42,189.59,236.88 36.19,189.81,236.95"/>
    </edge>
    <edge id=":230_14" function="internal">
        <lane id=":230_14_0" index="0" disallow="pedestrian tram rail_urban rail rail_electric rail_fast ship" speed="9.80" length="21.42" width="3.75" shape="15.73,196.76,236.77 16.39,195.36,236.79 20.82,193.66,236.82 27.54,193.16,236.88 35.93,193.51,236.95"/>
    </edge>
    <edge id=":230_15" function="internal">
        <lane id=":230_15_0" index="0" disallow="pedestrian tram rail_urban rail rail_electric rail_fast ship" speed="9.38" length="19.89" width="3.28" shape="16.00,197.57,236.77 16.45,197.15,236.78 20.90,196.53,236.82 27.53,196.55,236.88 35.67,197.02,236.95"/>
    </edge>
    <edge id=":230_4" function="internal">
        <lane id=":230_4_0" index="0" disallow="pedestrian tram rail_urban rail rail_electric rail_fast ship" speed="11.21" length="24.31" width="3.66" shape="16.52,178.79,236.13 18.24,183.12,236.29 22.09,186.40,236.46 28.07,188.63,236.67 36.19,189.81,236.95"/>
        <lane id=":230_4_1" index="1" disallow="pedestrian tram rail_urban rail rail_electric rail_fast ship" speed="11.71" length="26.62" width="3.75" shape="16.52,178.79,236.13 18.41,184.76,236.33 22.27,189.20,236.51 28.11,192.11,236.71 35.93,193.51,236.95"/>
        <lane id=":230_4_2" index="2" disallow="pedestrian tram rail_urban rail rail_electric rail_fast ship" speed="12.21" length="28.98" width="3.28" shape="16.52,178.79,236.13 18.57,186.31,236.35 22.45,191.85,236.54 28.15,195.42,236.73 35.67,197.02,236.95"/>
    </edge>
    <edge id=":230_7" function="internal">
        <lane id=":230_7_0" index="0" disallow="pedestrian tram rail_urban rail rail_electric rail_fast ship" speed="20.12" length="19.79" width="3.25" shape="16.52,178.79,236.13 17.05,183.26,236.28 17.57,188.63,236.44 18.00,194.00,236.61 18.26,198.49,236.76"/>
    </edge>
    <edge id=":230_8" function="internal">
        <lane id=":230_8_0" index="0" disallow="pedestrian tram rail_urban rail rail_electric rail_fast ship" speed="18.90" length="18.75" width="3.25" shape="4.67,195.65,236.73 6.97,191.86,236.59 9.96,187.60,236.42 12.45,183.25,236.26 13.21,179.24,236.13"/>
    </edge>
    <edge id=":230_9" function="internal">
        <lane id=":230_9_0" index="0" disallow="pedestrian tram rail_urban rail rail_electric rail_fast ship" speed="14.22" length="33.27" width="3.66" shape="4.67,195.65,236.73 7.97,192.34,236.76 14.33,190.27,236.80 23.74,189.42,236.86 36.19,189.81,236.95"/>
        <lane id=":230_9_1" index="1" disallow="pedestrian tram rail_urban rail rail_electric rail_fast ship" speed="13.93" length="31.86" width="3.75" shape="4.67,195.65,236.73 7.34,193.92,236.75 13.45,192.99,236.79 22.97,192.85,236.86 35.93,193.51,236.95"/>
        <lane id=":230_9_2" index="2" disallow="pedestrian tram rail_urban rail rail_electric rail_fast ship" speed="13.77" length="31.06" width="3.28" shape="4.67,195.65,236.73 9.55,195.47,236.76 19.95,195.97,236.84 30.47,196.64,236.91 35.67,197.02,236.95"/>
    </edge>
    <edge id=":230_12" function="internal">
        <lane id=":230_12_0" index="0" disallow="pedestrian tram rail_urban rail rail_electric rail_fast ship" speed="7.33" length="18.99" width="3.25" shape="4.67,195.65,236.73 8.10,192.05,236.73 12.55,191.55,236.74 16.46,193.81,236.75 18.26,198.49,236.76"/>
    </edge>
    <edge id=":250_0" function="internal">
        <lane id=":250_0_0" index="0" disallow="pedestrian tram rail_urban rail rail_electric rail_fast ship" speed="10.69" length="25.03" width="5.02" shape="109.65,218.06,238.42 108.45,210.92,238.17 105.57,205.78,237.97 101.01,202.63,237.78 94.78,201.48,237.57"/>
    </edge>
    <edge id=":250_1" function="internal">
        <lane id=":250_1_0" index="0" disallow="pedestrian tram rail_urban rail rail_electric rail_fast ship" speed="17.88" length="45.80" width="5.47" shape="109.65,218.06,238.42 109.24,172.28,237.48"/>
    </edge>
    <edge id=":250_2" function="internal">
        <lane id=":250_2_0" index="0" disallow="pedestrian tram rail_urban rail rail_electric rail_fast ship" speed="12.29" length="7.80" width="3.67" shape="112.39,217.94,238.42 112.84,210.15,238.35"/>
    </edge>
    <edge id=":250_12" function="internal">
        <lane id=":250_12_0" index="0" disallow="pedestrian tram rail_urban rail rail_electric rail_fast ship" speed="12.29" length="30.68" width="3.67" shape="112.84,210.15,238.35 113.09,205.81,238.31 116.44,197.04,238.23 122.44,191.63,238.16 131.07,189.58,238.08"/>
    </edge>
    <edge id=":250_3" function="internal">
        <lane id=":250_3_0" index="0" disallow="pedestrian tram rail_urban rail rail_electric rail_fast ship" speed="10.47" length="25.06" width="5.48" shape="131.52,201.73,238.36 124.70,202.95,238.37 119.93,206.03,238.39 117.21,210.96,238.40 116.53,217.75,238.42"/>
    </edge>
    <edge id=":250_4" function="internal">
        <lane id=":250_4_0" index="0" allow="emergency authority" speed="8.94" length="36.53" width="1.78" shape="131.38,197.92,238.36 94.85,198.08,237.57"/>
    </edge>
    <edge id=":250_5" function="internal">
        <lane id=":250_5_0" index="0" disallow="pedestrian tram rail_urban rail rail_electric rail_fast ship" speed="12.29" length="15.96" width="5.47" shape="131.38,197.92,238.36 122.09,196.61,238.14 116.69,192.86,237.99"/>
    </edge>
    <edge id=":250_13" function="internal">
        <lane id=":250_13_0" index="0" disallow="pedestrian tram rail_urban rail rail_electric rail_fast ship" speed="12.29" length="22.51" width="5.47" shape="116.69,192.86,237.99 115.30,191.89,237.95 111.02,183.78,237.75 109.24,172.28,237.48"/>
    </edge>
    <edge id=":250_6" function="internal">
        <lane id=":250_6_0" index="0" disallow="pedestrian tram rail_urban rail rail_electric rail_fast ship" speed="10.05" length="23.10" width="3.65" shape="116.22,172.00,237.48 117.35,178.29,237.65 120.18,182.71,237.78 124.71,185.25,237.92 130.94,185.93,238.08"/>
    </edge>
    <edge id=":250_7" function="internal">
        <lane id=":250_7_0" index="0" disallow="pedestrian tram rail_urban rail rail_electric rail_fast ship" speed="15.65" length="45.77" width="5.48" shape="116.22,172.00,237.48 116.53,217.75,238.42"/>
    </edge>
    <edge id=":250_8" function="internal">
        <lane id=":250_8_0" index="0" allow="emergency authority" speed="12.29" length="6.93" width="1.78" shape="113.40,172.11,237.48 112.94,179.03,237.50"/>
    </edge>
    <edge id=":250_14" function="internal">
        <lane id=":250_14_0" index="0" allow="emergency authority" speed="12.29" length="29.70" width="1.78" shape="112.94,179.03,237.50 112.63,183.63,237.51 109.28,191.80,237.53 103.36,196.62,237.55 94.85,198.08,237.57"/>
    </edge>
    <edge id=":250_9" function="internal">