<?xml version="1.0" encoding="UTF-8"?>

<!-- generated on 2024-04-16 21:11:52 by Eclipse SUMO netedit Version 1.19.0
-->

<routes xmlns:xsi="http://www.w3.org/2001/XMLSchema-instance" xsi:noNamespaceSchemaLocation="http://sumo.dlr.de/xsd/routes_file.xsd">
    <!-- Vehicles, persons and containers (sorted by depart) -->
    <vType id="p2e0" maxSpeed="20"/>
    <trip id="TFHRC-SUMO-01" type="p2e0" depart="0.00" from="-73#0" to="-50" via="93 87 82#1 82#0 3 -89"/>
    <trip id="TFHRC-SUMO-02" type="p2e0" depart="0.00" from="-3" to="-53" via="-82#0 -82#1 -87 -93"/>
</routes>
