<?xml version="1.0" encoding="UTF-8"?>

<!-- generated on 2024-02-20 11:10:52 by Eclipse SUMO netedit Version 1.19.0
-->

<routes xmlns:xsi="http://www.w3.org/2001/XMLSchema-instance" xsi:noNamespaceSchemaLocation="http://sumo.dlr.de/xsd/routes_file.xsd">
    <!-- Vehicles, persons and containers (sorted by depart) -->
    <trip id="t_0" depart="0.00" from="18#3" to="-31#0" via="36#0 6 13 -23 -3 -82#0 -87 5 72 -48 -43 12 -63#0 -63#5"/>
</routes>
